*SPEF "ieee 1481-1999"
*DESIGN "spm"
*DATE "04:20:52 Friday December 19, 2025"
*VENDOR "The OpenROAD Project"
*PROGRAM "OpenROAD"
*VERSION "341650e72dad0dc8571822ff8c5d9c5e365327f7"
*DESIGN_FLOW "NAME_SCOPE LOCAL" "PIN_CAP NONE"
*DIVIDER /
*DELIMITER :
*BUS_DELIMITER []
*T_UNIT 1 NS
*C_UNIT 1 PF
*R_UNIT 1 OHM
*L_UNIT 1 HENRY

*NAME_MAP
*3 clk
*4 p
*5 rst
*6 x[0]
*7 x[1]
*8 x[2]
*9 x[3]
*10 x[4]
*11 x[5]
*12 x[6]
*13 x[7]
*14 y
*15 _000_
*16 _001_
*17 _002_
*18 _003_
*19 _004_
*20 _005_
*21 _006_
*22 _007_
*23 _008_
*24 _009_
*25 _010_
*26 _011_
*27 _012_
*28 _013_
*29 _014_
*30 _015_
*31 _016_
*32 _017_
*33 _018_
*34 _019_
*35 _020_
*36 _021_
*37 _022_
*38 _023_
*39 _024_
*40 _025_
*41 _026_
*42 _027_
*43 _028_
*44 _029_
*45 _030_
*46 _031_
*47 _032_
*48 _033_
*49 _034_
*50 _035_
*51 _036_
*52 _037_
*53 _038_
*54 _039_
*55 _040_
*56 _041_
*57 _042_
*58 _043_
*59 _044_
*60 _045_
*61 _046_
*62 _047_
*63 _048_
*64 _049_
*65 _050_
*66 _051_
*67 _052_
*68 _053_
*69 clknet_0_clk
*70 clknet_2_0__leaf_clk
*71 clknet_2_1__leaf_clk
*72 clknet_2_2__leaf_clk
*73 clknet_2_3__leaf_clk
*74 csa0\.hsum2
*75 csa0\.sc
*76 csa0\.y
*77 genblk1\[1\]\.csa\.hsum2
*78 genblk1\[1\]\.csa\.sc
*79 genblk1\[1\]\.csa\.y
*80 genblk1\[2\]\.csa\.hsum2
*81 genblk1\[2\]\.csa\.sc
*82 genblk1\[2\]\.csa\.y
*83 genblk1\[3\]\.csa\.hsum2
*84 genblk1\[3\]\.csa\.sc
*85 genblk1\[3\]\.csa\.y
*86 genblk1\[4\]\.csa\.hsum2
*87 genblk1\[4\]\.csa\.sc
*88 genblk1\[4\]\.csa\.y
*89 genblk1\[5\]\.csa\.hsum2
*90 genblk1\[5\]\.csa\.sc
*91 genblk1\[5\]\.csa\.y
*92 genblk1\[6\]\.csa\.hsum2
*93 genblk1\[6\]\.csa\.sc
*94 genblk1\[6\]\.csa\.y
*95 net1
*96 net10
*97 net11
*98 net12
*99 net13
*100 net14
*101 net15
*102 net16
*103 net17
*104 net18
*105 net19
*106 net2
*107 net20
*108 net21
*109 net22
*110 net23
*111 net24
*112 net25
*113 net26
*114 net27
*115 net28
*116 net29
*117 net3
*118 net30
*119 net31
*120 net32
*121 net33
*122 net34
*123 net35
*124 net36
*125 net37
*126 net38
*127 net39
*128 net4
*129 net40
*130 net41
*131 net42
*132 net5
*133 net6
*134 net7
*135 net8
*136 net9
*137 tcmp\.z
*138 FILLER_0_0
*139 FILLER_0_105
*140 FILLER_0_14
*141 FILLER_0_18
*142 FILLER_0_23
*143 FILLER_0_30
*144 FILLER_0_37
*145 FILLER_0_39
*146 FILLER_0_7
*147 FILLER_0_84
*148 FILLER_0_91
*149 FILLER_0_98
*150 FILLER_10_0
*151 FILLER_10_105
*152 FILLER_10_31
*153 FILLER_10_50
*154 FILLER_10_52
*155 FILLER_11_100
*156 FILLER_11_12
*157 FILLER_11_16
*158 FILLER_12_0
*159 FILLER_12_101
*160 FILLER_12_105
*161 FILLER_12_14
*162 FILLER_12_16
*163 FILLER_12_42
*164 FILLER_12_52
*165 FILLER_12_56
*166 FILLER_12_67
*167 FILLER_12_7
*168 FILLER_12_74
*169 FILLER_12_87
*170 FILLER_12_94
*171 FILLER_1_0
*172 FILLER_1_102
*173 FILLER_1_106
*174 FILLER_1_14
*175 FILLER_1_50
*176 FILLER_1_7
*177 FILLER_1_88
*178 FILLER_1_95
*179 FILLER_2_0
*180 FILLER_2_101
*181 FILLER_2_14
*182 FILLER_2_7
*183 FILLER_2_71
*184 FILLER_2_73
*185 FILLER_2_83
*186 FILLER_2_90
*187 FILLER_2_97
*188 FILLER_3_106
*189 FILLER_3_11
*190 FILLER_4_63
*191 FILLER_4_76
*192 FILLER_4_83
*193 FILLER_4_98
*194 FILLER_5_25
*195 FILLER_5_57
*196 FILLER_5_85
*197 FILLER_5_89
*198 FILLER_6_0
*199 FILLER_6_79
*200 FILLER_7_0
*201 FILLER_7_106
*202 FILLER_7_13
*203 FILLER_7_15
*204 FILLER_7_4
*205 FILLER_7_71
*206 FILLER_8_104
*207 FILLER_8_106
*208 FILLER_8_31
*209 FILLER_8_44
*210 FILLER_8_67
*211 FILLER_9_0
*212 FILLER_9_53
*213 _054_
*214 _055_
*215 _056_
*216 _057_
*217 _058_
*218 _059_
*219 _060_
*220 _061_
*221 _062_
*222 _063_
*223 _064_
*224 _065_
*225 _066_
*226 _067_
*227 _068_
*228 _069_
*229 _070_
*230 _071_
*231 _072_
*232 _073_
*233 _074_
*234 _075_
*235 _076_
*236 _077_
*237 _078_
*238 _079_
*239 _080_
*240 _081_
*241 _082_
*242 _083_
*243 _084_
*244 _085_
*245 _086_
*246 _087_
*247 _088_
*248 _089_
*249 _090_
*250 _091_
*251 _092_
*252 _093_
*253 _094_
*254 _095_
*255 _096_
*256 _097_
*257 _098_
*258 _099_
*259 _100_
*260 _101_
*261 _102_
*262 _103_
*263 _104_
*264 _105_
*265 _106_
*266 _107_
*267 _108_
*268 _109_
*269 _110_
*270 _111_
*271 _112_
*272 _113_
*273 _114_
*274 _115_
*275 _116_
*276 _117_
*277 _118_
*278 _119_
*279 _120_
*280 _121_
*281 _122_
*282 _123_
*283 _124_
*284 _125_
*285 _126_
*286 _127_
*287 _128_
*288 _129_
*289 _130_
*290 clkbuf_0_clk
*291 clkbuf_2_0__f_clk
*292 clkbuf_2_1__f_clk
*293 clkbuf_2_2__f_clk
*294 clkbuf_2_3__f_clk
*295 fanout1
*296 fanout2
*297 hold1
*298 hold10
*299 hold11
*300 hold12
*301 hold13
*302 hold14
*303 hold15
*304 hold16
*305 hold17
*306 hold18
*307 hold19
*308 hold2
*309 hold20
*310 hold21
*311 hold22
*312 hold23
*313 hold24
*314 hold25
*315 hold26
*316 hold27
*317 hold28
*318 hold29
*319 hold3
*320 hold4
*321 hold5
*322 hold6
*323 hold7
*324 hold8
*325 hold9
*326 input1
*327 input10
*328 input2
*329 input3
*330 input4
*331 input5
*332 input6
*333 input7
*334 input8
*335 input9
*336 output11

*PORTS
clk I
p O
rst I
x[0] I
x[1] I
x[2] I
x[3] I
x[4] I
x[5] I
x[6] I
x[7] I
y I

*D_NET *3 0.00568015
*CONN
*P clk I
*I *290:A I *D sg13g2_buf_8
*CAP
1 clk 0.00191118
2 *290:A 0
3 *3:13 0.00191118
4 *3:13 *214:B 0
5 *3:13 *216:A 0
6 *3:13 *275:RESET_B 0.000177042
7 *3:13 *275:D 0.000468192
8 *3:13 *42:10 0.000288588
9 *3:13 *43:20 0.000241753
10 *3:13 *76:23 0
11 *3:13 *76:46 0.000181279
12 *3:13 *79:6 0
13 *3:13 *85:8 0
14 *3:13 *98:90 0.000453172
15 *3:13 *98:98 4.77702e-05
16 *3:13 *101:12 0
17 *3:13 *126:10 0
*RES
1 clk *3:13 43.175 
2 *3:13 *290:A 20 
*END

*D_NET *4 0.00118683
*CONN
*P p O
*I *336:X O *D sg13g2_buf_1
*CAP
1 p 0.000593414
2 *336:X 0.000593414
3 p *244:A 0
4 p *285:CLK 0
5 p *135:10 0
*RES
1 *336:X p 46.4375 
*END

*D_NET *5 0.000927757
*CONN
*P rst I
*I *326:A I *D sg13g2_buf_1
*CAP
1 rst 0.000463879
2 *326:A 0.000463879
3 *326:A *327:A 0
4 *326:A *98:18 0
5 *326:A *106:65 0
*RES
1 rst *326:A 44.9337 
*END

*D_NET *6 0.00136325
*CONN
*P x[0] I
*I *328:A I *D sg13g2_buf_1
*CAP
1 x[0] 0.000592904
2 *328:A 0.000592904
3 *328:A *336:A 0.000177442
4 *328:A *128:10 0
*RES
1 x[0] *328:A 46.7465 
*END

*D_NET *7 0.00235108
*CONN
*P x[1] I
*I *329:A I *D sg13g2_buf_1
*CAP
1 x[1] 0.000691714
2 *329:A 0.000483824
3 *7:11 0.00117554
4 *329:A *132:8 0
*RES
1 x[1] *7:11 48.7344 
2 *7:11 *329:A 25.7268 
*END

*D_NET *8 0.00100033
*CONN
*P x[2] I
*I *330:A I *D sg13g2_buf_1
*CAP
1 x[2] 0.000384303
2 *330:A 0.000384303
3 *330:A *281:RESET_B 4.77425e-05
4 *330:A *331:A 0
5 *330:A *106:42 0.000183978
*RES
1 x[2] *330:A 44.6865 
*END

*D_NET *9 0.0012314
*CONN
*P x[3] I
*I *331:A I *D sg13g2_buf_1
*CAP
1 x[3] 0.0006157
2 *331:A 0.0006157
3 *331:A *106:42 0
4 *330:A *331:A 0
*RES
1 x[3] *331:A 46.8289 
*END

*D_NET *10 0.00197018
*CONN
*P x[4] I
*I *332:A I *D sg13g2_buf_1
*CAP
1 x[4] 0.000847682
2 *332:A 0.000847682
3 *332:A *317:A 0
4 *332:A *321:A 0.000274812
5 *332:A *336:A 0
6 *332:A *135:10 0
*RES
1 x[4] *332:A 49.4451 
*END

*D_NET *11 0.00171335
*CONN
*P x[5] I
*I *333:A I *D sg13g2_buf_1
*CAP
1 x[5] 0.000856674
2 *333:A 0.000856674
*RES
1 x[5] *333:A 30.6296 
*END

*D_NET *12 0.00215767
*CONN
*P x[6] I
*I *334:A I *D sg13g2_buf_1
*CAP
1 x[6] 0.000771012
2 *334:A 0.000307822
3 *12:11 0.00107883
4 *334:A *255:A 0
*RES
1 x[6] *12:11 49.6408 
2 *12:11 *334:A 23.5638 
*END

*D_NET *13 0.000680701
*CONN
*P x[7] I
*I *335:A I *D sg13g2_buf_1
*CAP
1 x[7] 0.000340351
2 *335:A 0.000340351
3 *335:A *222:B 0
4 *335:A *97:10 0
*RES
1 x[7] *335:A 44.1303 
*END

*D_NET *14 0.000941697
*CONN
*P y I
*I *327:A I *D sg13g2_buf_2
*CAP
1 y 0.000470848
2 *327:A 0.000470848
3 *327:A *98:18 0
4 *326:A *327:A 0
*RES
1 y *327:A 45.0882 
*END

*D_NET *15 0.00249711
*CONN
*I *320:A I *D sg13g2_dlygate4sd3_1
*I *218:Y O *D sg13g2_o21ai_1
*CAP
1 *320:A 0
2 *218:Y 0.000679111
3 *15:10 0.000679111
4 *15:10 *213:A 7.61961e-05
5 *15:10 *214:A 0
6 *15:10 *218:B1 4.77347e-05
7 *15:10 *218:A2 0
8 *15:10 *45:10 0
9 *15:10 *79:17 0.00029161
10 *15:10 *95:32 0
11 *15:10 *95:56 0.000723349
12 *15:10 *101:12 0
*RES
1 *218:Y *15:10 47.1276 
2 *15:10 *320:A 40 
*END

*D_NET *16 0.00118476
*CONN
*I *311:A I *D sg13g2_dlygate4sd3_1
*I *227:Y O *D sg13g2_o21ai_1
*CAP
1 *311:A 0
2 *227:Y 8.59766e-05
3 *16:8 8.59766e-05
4 *16:8 *227:A1 0.000507949
5 *16:8 *121:21 0.000504858
*RES
1 *227:Y *16:8 42.3278 
2 *16:8 *311:A 40 
*END

*D_NET *17 0.000332319
*CONN
*I *301:A I *D sg13g2_dlygate4sd3_1
*I *233:Y O *D sg13g2_o21ai_1
*CAP
1 *301:A 0.000166159
2 *233:Y 0.000166159
3 *301:A *230:A 0
4 *301:A *234:B 0
*RES
1 *233:Y *301:A 41.8746 
*END

*D_NET *18 0.000985934
*CONN
*I *298:A I *D sg13g2_dlygate4sd3_1
*I *239:Y O *D sg13g2_o21ai_1
*CAP
1 *298:A 0.000323304
2 *239:Y 0.000323304
3 *298:A *248:A 0
4 *298:A *258:A 0
5 *298:A *283:RESET_B 0
6 *298:A *283:CLK 0
7 *298:A *288:D 0
8 *298:A *106:10 0
9 *298:A *106:18 0.000339326
*RES
1 *239:Y *298:A 43.7904 
*END

*D_NET *19 0.00118406
*CONN
*I *323:A I *D sg13g2_dlygate4sd3_1
*I *245:Y O *D sg13g2_o21ai_1
*CAP
1 *323:A 0
2 *245:Y 8.96525e-05
3 *19:8 8.96525e-05
4 *19:8 *61:8 0.000502376
5 *19:8 *105:8 0.000502376
*RES
1 *245:Y *19:8 42.3278 
2 *19:8 *323:A 40 
*END

*D_NET *20 0.00094807
*CONN
*I *307:A I *D sg13g2_dlygate4sd3_1
*I *251:Y O *D sg13g2_o21ai_1
*CAP
1 *307:A 0.000296658
2 *251:Y 0.000296658
3 *307:A *249:B 0
4 *307:A *251:B1 0.000354754
5 *307:A *251:A2 0
*RES
1 *251:Y *307:A 43.1106 
*END

*D_NET *21 0.00176485
*CONN
*I *304:A I *D sg13g2_dlygate4sd3_1
*I *257:Y O *D sg13g2_o21ai_1
*CAP
1 *304:A 0.000507336
2 *257:Y 0.000134654
3 *21:10 0.00064199
4 *304:A *258:B 0
5 *304:A *114:14 0.000480866
*RES
1 *257:Y *21:10 41.3802 
2 *21:10 *304:A 45.3148 
*END

*D_NET *22 0.000351496
*CONN
*I *276:D I *D sg13g2_dfrbpq_1
*I *222:Y O *D sg13g2_xnor2_1
*CAP
1 *276:D 0.000175748
2 *222:Y 0.000175748
3 *276:D *222:A 0
*RES
1 *222:Y *276:D 42.0291 
*END

*D_NET *23 0.000456854
*CONN
*I *277:D I *D sg13g2_dfrbpq_1
*I *221:Y O *D sg13g2_nand2b_1
*CAP
1 *277:D 0.000228427
2 *221:Y 0.000228427
3 *277:D *222:A 0
4 *277:D *222:B 0
5 *277:D *277:RESET_B 0
*RES
1 *221:Y *277:D 42.3793 
*END

*D_NET *24 0.000454114
*CONN
*I *274:RESET_B I *D sg13g2_dfrbpq_1
*I *213:Y O *D sg13g2_inv_1
*CAP
1 *274:RESET_B 0
2 *213:Y 0.000227057
3 *24:8 0.000227057
*RES
1 *213:Y *24:8 42.575 
2 *24:8 *274:RESET_B 40 
*END

*D_NET *25 0.00119206
*CONN
*I *275:RESET_B I *D sg13g2_dfrbpq_1
*I *259:Y O *D sg13g2_inv_1
*CAP
1 *275:RESET_B 0.00013572
2 *259:Y 0.000371788
3 *25:8 0.000507508
4 *275:RESET_B *275:D 0
5 *275:RESET_B *319:A 0
6 *275:RESET_B *126:10 0
7 *25:8 *102:10 0
8 *25:8 *126:10 0
9 *25:8 *129:8 0
10 *3:13 *275:RESET_B 0.000177042
*RES
1 *259:Y *25:8 43.3166 
2 *25:8 *275:RESET_B 41.4008 
*END

*D_NET *26 0.000419235
*CONN
*I *276:RESET_B I *D sg13g2_dfrbpq_1
*I *260:Y O *D sg13g2_inv_1
*CAP
1 *276:RESET_B 0.000209618
2 *260:Y 0.000209618
3 *276:RESET_B *98:18 0
4 *276:RESET_B *106:65 0
*RES
1 *260:Y *276:RESET_B 42.0703 
*END

*D_NET *27 0.0006454
*CONN
*I *277:RESET_B I *D sg13g2_dfrbpq_1
*I *261:Y O *D sg13g2_inv_1
*CAP
1 *277:RESET_B 0.000298829
2 *261:Y 0.000298829
3 *277:RESET_B *221:B 4.77425e-05
4 *277:RESET_B *221:A_N 0
5 *277:RESET_B *222:A 0
6 *277:RESET_B *222:B 0
7 *277:D *277:RESET_B 0
*RES
1 *261:Y *277:RESET_B 43.0282 
*END

*D_NET *28 0.00172837
*CONN
*I *278:RESET_B I *D sg13g2_dfrbpq_1
*I *262:Y O *D sg13g2_inv_1
*CAP
1 *278:RESET_B 0.000630023
2 *262:Y 0.000630023
3 *278:RESET_B *226:A 0
4 *278:RESET_B *278:CLK 0
5 *278:RESET_B *95:32 0
6 *278:RESET_B *95:38 0.000468325
7 *278:RESET_B *98:108 0
*RES
1 *262:Y *278:RESET_B 45.9037 
*END

*D_NET *29 0.000352937
*CONN
*I *279:RESET_B I *D sg13g2_dfrbpq_1
*I *263:Y O *D sg13g2_inv_1
*CAP
1 *279:RESET_B 0.000176469
2 *263:Y 0.000176469
3 *279:RESET_B *263:A 0
4 *279:RESET_B *279:D 0
5 *279:RESET_B *279:CLK 0
*RES
1 *263:Y *279:RESET_B 41.9673 
*END

*D_NET *30 0.0021
*CONN
*I *280:RESET_B I *D sg13g2_dfrbpq_1
*I *264:Y O *D sg13g2_inv_1
*CAP
1 *280:RESET_B 0.000257767
2 *264:Y 0.000465826
3 *30:14 0.000723593
4 *280:RESET_B *240:B 0
5 *280:RESET_B *69:33 0
6 *280:RESET_B *95:10 0
7 *30:14 *234:B 0
8 *30:14 *282:D 0
9 *30:14 *293:A 0
10 *30:14 *83:8 0
11 *30:14 *111:48 0.000370695
12 *30:14 *134:20 0.000282123
*RES
1 *264:Y *30:14 44.9543 
2 *30:14 *280:RESET_B 42.6986 
*END

*D_NET *31 0.000631528
*CONN
*I *281:RESET_B I *D sg13g2_dfrbpq_1
*I *265:Y O *D sg13g2_inv_1
*CAP
1 *281:RESET_B 0.000291893
2 *265:Y 0.000291893
3 *281:RESET_B *230:A 0
4 *281:RESET_B *230:B 0
5 *281:RESET_B *106:42 0
6 *330:A *281:RESET_B 4.77425e-05
*RES
1 *265:Y *281:RESET_B 42.0954 
*END

*D_NET *32 0.00185212
*CONN
*I *282:RESET_B I *D sg13g2_dfrbpq_1
*I *266:Y O *D sg13g2_inv_1
*CAP
1 *282:RESET_B 9.5542e-05
2 *266:Y 0.000718772
3 *32:10 0.000814314
4 *282:RESET_B *230:A 0
5 *282:RESET_B *234:B 0.000144053
6 *32:10 *106:34 7.94445e-05
*RES
1 *266:Y *32:10 46.3242 
2 *32:10 *282:RESET_B 40.9682 
*END

*D_NET *33 0.00147513
*CONN
*I *283:RESET_B I *D sg13g2_dfrbpq_1
*I *267:Y O *D sg13g2_inv_1
*CAP
1 *283:RESET_B 0.000333689
2 *267:Y 0.000333689
3 *283:RESET_B *239:B1 0.000500994
4 *283:RESET_B *57:16 0.000306754
5 *283:RESET_B *106:18 0
6 *298:A *283:RESET_B 0
*RES
1 *267:Y *283:RESET_B 43.9449 
*END

*D_NET *34 0.00238131
*CONN
*I *284:RESET_B I *D sg13g2_dfrbpq_1
*I *268:Y O *D sg13g2_inv_1
*CAP
1 *284:RESET_B 9.71464e-05
2 *268:Y 0.000825444
3 *34:10 0.00092259
4 *284:RESET_B *284:D 0
5 *284:RESET_B *284:CLK 0
6 *284:RESET_B *292:A 0
7 *284:RESET_B *95:62 0
8 *34:10 *236:B 0
9 *34:10 *295:A 7.91581e-05
10 *34:10 *62:10 0.000456972
11 *34:10 *95:10 0
*RES
1 *268:Y *34:10 49.5378 
2 *34:10 *284:RESET_B 40.9682 
*END

*D_NET *35 0.00159418
*CONN
*I *285:RESET_B I *D sg13g2_dfrbpq_1
*I *269:Y O *D sg13g2_inv_1
*CAP
1 *285:RESET_B 0
2 *269:Y 0.000365542
3 *35:10 0.000365542
4 *35:10 *242:A 0.00024184
5 *35:10 *246:B 0
6 *35:10 *60:14 0.000130055
7 *35:10 *95:62 0
8 *35:10 *95:77 0.000144815
9 *35:10 *135:10 0.00034638
*RES
1 *269:Y *35:10 44.1921 
2 *35:10 *285:RESET_B 40 
*END

*D_NET *36 0.000751782
*CONN
*I *286:RESET_B I *D sg13g2_dfrbpq_1
*I *270:Y O *D sg13g2_inv_1
*CAP
1 *286:RESET_B 4.96756e-05
2 *270:Y 0.000286102
3 *36:8 0.000335778
4 *286:RESET_B *287:RESET_B 8.02269e-05
5 *36:8 *242:A 0
6 *36:8 *61:8 0
7 *36:8 *73:8 0
8 *36:8 *89:10 0
*RES
1 *270:Y *36:8 42.8222 
2 *36:8 *286:RESET_B 40.5356 
*END

*D_NET *37 0.00181025
*CONN
*I *287:RESET_B I *D sg13g2_dfrbpq_1
*I *271:Y O *D sg13g2_inv_1
*CAP
1 *287:RESET_B 0.000603185
2 *271:Y 0.000603185
3 *287:RESET_B *245:A1 2.21754e-05
4 *287:RESET_B *245:A2 0
5 *287:RESET_B *251:B1 0
6 *287:RESET_B *270:A 0
7 *287:RESET_B *287:D 0
8 *287:RESET_B *287:CLK 0
9 *287:RESET_B *294:A 0.000501482
10 *286:RESET_B *287:RESET_B 8.02269e-05
*RES
1 *271:Y *287:RESET_B 47.2615 
*END

*D_NET *38 0.000504359
*CONN
*I *288:RESET_B I *D sg13g2_dfrbpq_1
*I *272:Y O *D sg13g2_inv_1
*CAP
1 *288:RESET_B 0.00014723
2 *272:Y 0.00014723
3 *288:RESET_B *248:B 0
4 *288:RESET_B *296:A 0.000209899
*RES
1 *272:Y *288:RESET_B 41.751 
*END

*D_NET *39 0.000743466
*CONN
*I *289:RESET_B I *D sg13g2_dfrbpq_1
*I *273:Y O *D sg13g2_inv_1
*CAP
1 *289:RESET_B 3.35604e-05
2 *273:Y 0.000193752
3 *39:8 0.000227312
4 *39:8 *72:42 0.000288841
5 *39:8 *96:10 0
*RES
1 *273:Y *39:8 42.575 
2 *39:8 *289:RESET_B 40.3193 
*END

*D_NET *40 0.00287542
*CONN
*I *257:A2 I *D sg13g2_o21ai_1
*I *255:Y O *D sg13g2_nor2_1
*CAP
1 *257:A2 5.67462e-05
2 *255:Y 0.000677597
3 *40:12 0.000734343
4 *257:A2 *239:A1 0
5 *257:A2 *257:B1 1.54008e-05
6 *257:A2 *68:10 0
7 *40:12 *293:A 0
8 *40:12 *302:A 0
9 *40:12 *68:10 0.000504113
10 *40:12 *72:42 0.000436798
11 *40:12 *98:24 0
12 *40:12 *98:76 0
13 *40:12 *106:65 0
14 *40:12 *137:12 0.000450423
*RES
1 *255:Y *40:12 48.9301 
2 *40:12 *257:A2 40.5356 
*END

*D_NET *41 0.00189596
*CONN
*I *258:B I *D sg13g2_xnor2_1
*I *256:X O *D sg13g2_xor2_1
*CAP
1 *258:B 0.000335934
2 *256:X 0.000433686
3 *41:10 0.000769619
4 *258:B *258:A 1.53311e-05
5 *258:B *93:6 0
6 *41:10 *67:8 0.000341393
7 *41:10 *72:42 0
8 *41:10 *93:12 0
9 *41:10 *96:10 0
10 *41:10 *127:8 0
11 *304:A *258:B 0
*RES
1 *256:X *41:10 44.6556 
2 *41:10 *258:B 43.5638 
*END

*D_NET *42 0.00161993
*CONN
*I *319:A I *D sg13g2_dlygate4sd3_1
*I *214:Y O *D sg13g2_nand2_1
*CAP
1 *319:A 0.000163007
2 *214:Y 0.000335153
3 *42:10 0.00049816
4 *319:A *126:10 0
5 *42:10 *214:A 4.77699e-05
6 *42:10 *214:B 0
7 *42:10 *278:CLK 0
8 *42:10 *95:38 0
9 *42:10 *102:10 0.000287256
10 *42:10 *126:10 0
11 *275:RESET_B *319:A 0
12 *3:13 *42:10 0.000288588
*RES
1 *214:Y *42:10 44.3775 
2 *42:10 *319:A 41.4008 
*END

*D_NET *43 0.00298492
*CONN
*I *219:A I *D sg13g2_xnor2_1
*I *218:A1 I *D sg13g2_o21ai_1
*I *215:Y O *D sg13g2_nand2_1
*CAP
1 *219:A 0
2 *218:A1 0
3 *215:Y 2.75806e-05
4 *43:33 0.000211255
5 *43:20 0.000689341
6 *43:6 0.000928177
7 *43:6 *95:62 0
8 *43:6 *98:98 1.54008e-05
9 *43:20 *218:A2 8.02267e-05
10 *43:20 *275:D 0
11 *43:20 *44:8 0.000237643
12 *43:20 *45:10 0
13 *43:20 *95:56 0.000237794
14 *43:20 *95:62 0
15 *43:20 *102:10 0.000111685
16 *43:33 *219:B 8.00842e-05
17 *43:33 *284:CLK 0.000123981
18 *3:13 *43:20 0.000241753
*RES
1 *215:Y *43:6 20.3193 
2 *43:6 *43:20 47.1894 
3 *43:20 *218:A1 20 
4 *43:6 *43:33 42.1218 
5 *43:33 *219:A 20 
*END

*D_NET *44 0.00224741
*CONN
*I *218:A2 I *D sg13g2_o21ai_1
*I *216:Y O *D sg13g2_nor2_1
*CAP
1 *218:A2 0.000346655
2 *216:Y 0.000424853
3 *44:8 0.000771507
4 *218:A2 *218:B1 0.000112341
5 *218:A2 *45:10 0.000274182
6 *15:10 *218:A2 0
7 *43:20 *218:A2 8.02267e-05
8 *43:20 *44:8 0.000237643
*RES
1 *216:Y *44:8 44.3054 
2 *44:8 *218:A2 43.3475 
*END

*D_NET *45 0.00210058
*CONN
*I *219:B I *D sg13g2_xnor2_1
*I *217:X O *D sg13g2_xor2_1
*CAP
1 *219:B 0.000143569
2 *217:X 0.000664561
3 *45:10 0.00080813
4 *219:B *275:CLK 0
5 *219:B *95:62 0
6 *45:10 *79:17 0.000130055
7 *45:10 *95:26 0
8 *218:A2 *45:10 0.000274182
9 *15:10 *45:10 0
10 *43:20 *45:10 0
11 *43:33 *219:B 8.00842e-05
*RES
1 *217:X *45:10 46.2315 
2 *45:10 *219:B 41.4008 
*END

*D_NET *46 0.00226884
*CONN
*I *221:B I *D sg13g2_nand2b_1
*I *222:B I *D sg13g2_xnor2_1
*I *220:Y O *D sg13g2_nand2_1
*CAP
1 *221:B 2.60565e-05
2 *222:B 0.000450546
3 *220:Y 0.000124552
4 *46:8 0.000601155
5 *221:B *221:A_N 4.77425e-05
6 *222:B *221:A_N 0
7 *222:B *222:A 8.03692e-05
8 *222:B *97:10 0.000571981
9 *46:8 *97:10 0.000318694
10 *46:8 *106:26 0
11 *277:RESET_B *221:B 4.77425e-05
12 *277:RESET_B *222:B 0
13 *277:D *222:B 0
14 *335:A *222:B 0
*RES
1 *220:Y *46:8 41.8334 
2 *46:8 *222:B 45.6135 
3 *46:8 *221:B 40.3193 
*END

*D_NET *47 0.0021086
*CONN
*I *310:A I *D sg13g2_dlygate4sd3_1
*I *223:Y O *D sg13g2_nand2_1
*CAP
1 *310:A 3.47831e-05
2 *223:Y 0.000755376
3 *47:8 0.000790159
4 *47:8 *234:A 0.000216593
5 *47:8 *52:8 0.000130012
6 *47:8 *69:33 0.000181681
7 *47:8 *79:17 0
8 *47:8 *121:21 0
9 *47:8 *122:10 0
10 *47:8 *129:8 0
*RES
1 *223:Y *47:8 47.7662 
2 *47:8 *310:A 40.3193 
*END

*D_NET *48 0.00367252
*CONN
*I *228:A I *D sg13g2_xnor2_1
*I *227:A1 I *D sg13g2_o21ai_1
*I *224:Y O *D sg13g2_nand2_1
*CAP
1 *228:A 4.88386e-05
2 *227:A1 0.000275635
3 *224:Y 0.000284813
4 *48:16 0.000505745
5 *48:10 0.000466085
6 *227:A1 *223:A 4.78853e-05
7 *227:A1 *227:A2 1.54008e-05
8 *227:A1 *121:21 0
9 *227:A1 *122:10 0.000723642
10 *228:A *121:21 0.000127744
11 *48:10 *278:D 0
12 *48:10 *278:CLK 0.000288852
13 *48:10 *279:CLK 7.49633e-05
14 *48:16 *279:CLK 0
15 *48:16 *70:8 0.000304968
16 *16:8 *227:A1 0.000507949
*RES
1 *224:Y *48:10 42.987 
2 *48:10 *48:16 42.0497 
3 *48:16 *227:A1 44.4496 
4 *48:16 *228:A 40.5974 
*END

*D_NET *49 0.000358785
*CONN
*I *227:A2 I *D sg13g2_o21ai_1
*I *225:Y O *D sg13g2_nor2_1
*CAP
1 *227:A2 0.000163992
2 *225:Y 0.000163992
3 *227:A2 *225:A 0
4 *227:A2 *225:B 0
5 *227:A2 *227:B1 1.54008e-05
6 *227:A2 *279:D 0
7 *227:A1 *227:A2 1.54008e-05
*RES
1 *225:Y *227:A2 41.6274 
*END

*D_NET *50 0.00100403
*CONN
*I *228:B I *D sg13g2_xnor2_1
*I *226:X O *D sg13g2_xor2_1
*CAP
1 *228:B 0.000190808
2 *226:X 0.000158373
3 *50:10 0.00034918
4 *228:B *226:B 0
5 *228:B *309:A 0
6 *228:B *70:8 0.000175712
7 *50:10 *78:10 0.000129961
*RES
1 *226:X *50:10 41.6892 
2 *50:10 *228:B 42.0703 
*END

*D_NET *51 0.00195775
*CONN
*I *300:A I *D sg13g2_dlygate4sd3_1
*I *229:Y O *D sg13g2_nand2_1
*CAP
1 *300:A 0
2 *229:Y 0.000633454
3 *51:10 0.000633454
4 *51:10 *312:A 0
5 *51:10 *83:8 0.00039932
6 *51:10 *111:16 0
7 *51:10 *112:8 0.000291523
*RES
1 *229:Y *51:10 46.8495 
2 *51:10 *300:A 40 
*END

*D_NET *52 0.00200701
*CONN
*I *234:A I *D sg13g2_xnor2_1
*I *233:A1 I *D sg13g2_o21ai_1
*I *230:Y O *D sg13g2_nand2_1
*CAP
1 *234:A 3.96593e-05
2 *233:A1 0.000411688
3 *230:Y 0.0001203
4 *52:8 0.000571647
5 *233:A1 *223:A 1.54008e-05
6 *233:A1 *230:A 0
7 *233:A1 *233:A2 8.00842e-05
8 *233:A1 *234:B 0
9 *234:A *79:17 0.000237751
10 *52:8 *79:17 0.00018387
11 *47:8 *234:A 0.000216593
12 *47:8 *52:8 0.000130012
*RES
1 *230:Y *52:8 41.5862 
2 *52:8 *233:A1 43.9964 
3 *52:8 *234:A 41.0918 
*END

*D_NET *53 0.00161466
*CONN
*I *233:A2 I *D sg13g2_o21ai_1
*I *231:Y O *D sg13g2_nor2_1
*CAP
1 *233:A2 5.10268e-05
2 *231:Y 0.000471109
3 *53:10 0.000522136
4 *53:10 *231:A 0.000238126
5 *53:10 *111:16 0.000252178
6 *233:A1 *233:A2 8.00842e-05
*RES
1 *231:Y *53:10 44.6247 
2 *53:10 *233:A2 40.5356 
*END

*D_NET *54 0.00193639
*CONN
*I *234:B I *D sg13g2_xnor2_1
*I *232:X O *D sg13g2_xor2_1
*CAP
1 *234:B 0.000896171
2 *232:X 0.000896171
3 *234:B *230:A 0
4 *234:B *232:B 0
5 *234:B *237:A 0
6 *234:B *282:D 0
7 *234:B *293:A 0
8 *234:B *299:A 0
9 *234:B *134:20 0
10 *233:A1 *234:B 0
11 *282:RESET_B *234:B 0.000144053
12 *301:A *234:B 0
13 *30:14 *234:B 0
*RES
1 *232:X *234:B 48.3551 
*END

*D_NET *55 0.00115446
*CONN
*I *325:A I *D sg13g2_dlygate4sd3_1
*I *235:Y O *D sg13g2_nand2_1
*CAP
1 *325:A 0.000416023
2 *235:Y 0.000416023
3 *325:A *235:B 0.000259242
4 *325:A *239:B1 0
5 *325:A *295:A 0
6 *325:A *85:8 4.77699e-05
7 *325:A *106:18 1.54008e-05
*RES
1 *235:Y *325:A 44.7277 
*END

*D_NET *56 0.00326128
*CONN
*I *239:A1 I *D sg13g2_o21ai_1
*I *240:A I *D sg13g2_xnor2_1
*I *236:Y O *D sg13g2_nand2_1
*CAP
1 *239:A1 0.000590311
2 *240:A 0
3 *236:Y 0.000182919
4 *56:18 0.000366412
5 *56:10 0.00113964
6 *239:A1 *238:B 0
7 *239:A1 *239:B1 0.000435455
8 *239:A1 *239:A2 0.000274785
9 *239:A1 *258:A 1.53311e-05
10 *239:A1 *283:D 0.0001773
11 *239:A1 *295:A 0
12 *239:A1 *69:8 0
13 *239:A1 *106:20 0
14 *56:10 *69:8 0
15 *56:10 *98:62 7.91215e-05
16 *56:10 *106:20 0
17 *56:18 *95:10 0
18 *257:A2 *239:A1 0
*RES
1 *236:Y *56:10 41.6274 
2 *56:10 *56:18 44.0067 
3 *56:18 *240:A 40 
4 *56:10 *239:A1 46.3757 
*END

*D_NET *57 0.00381166
*CONN
*I *239:A2 I *D sg13g2_o21ai_1
*I *237:Y O *D sg13g2_nor2_1
*CAP
1 *239:A2 0.000143658
2 *237:Y 0.000687293
3 *57:16 0.000411901
4 *57:8 0.000955537
5 *239:A2 *239:B1 0.00027467
6 *57:8 *237:A 0
7 *57:8 *237:B 0
8 *57:8 *85:12 0
9 *57:8 *98:62 0.000341557
10 *57:8 *106:26 0
11 *57:8 *108:10 0
12 *57:8 *111:48 0.000234311
13 *57:16 *98:76 0.000181192
14 *57:16 *106:18 0
15 *239:A1 *239:A2 0.000274785
16 *283:RESET_B *57:16 0.000306754
*RES
1 *237:Y *57:8 47.0246 
2 *57:8 *57:16 42.8943 
3 *57:16 *239:A2 41.8334 
*END

*D_NET *58 0.00158614
*CONN
*I *240:B I *D sg13g2_xnor2_1
*I *238:X O *D sg13g2_xor2_1
*CAP
1 *240:B 0.000713057
2 *238:X 0.000713057
3 *240:B *236:B 7.99388e-05
4 *240:B *238:B 0
5 *240:B *312:A 8.00842e-05
6 *240:B *69:33 0
7 *240:B *98:62 0
8 *240:B *111:48 0
9 *280:RESET_B *240:B 0
*RES
1 *238:X *240:B 46.7362 
*END

*D_NET *59 0.00089996
*CONN
*I *322:A I *D sg13g2_dlygate4sd3_1
*I *241:Y O *D sg13g2_nand2_1
*CAP
1 *322:A 0.00044998
2 *241:Y 0.00044998
3 *322:A *241:A 0
4 *322:A *244:A 0
5 *322:A *286:CLK 0
6 *322:A *104:19 0
*RES
1 *241:Y *322:A 44.7895 
*END

*D_NET *60 0.00130783
*CONN
*I *245:A1 I *D sg13g2_o21ai_1
*I *246:A I *D sg13g2_xnor2_1
*I *242:Y O *D sg13g2_nand2_1
*CAP
1 *245:A1 0.000256804
2 *246:A 0
3 *242:Y 0
4 *60:14 0.000241584
5 *60:4 0.000498387
6 *245:A1 *242:A 0
7 *245:A1 *242:B 0
8 *245:A1 *245:B1 0
9 *245:A1 *245:A2 0
10 *245:A1 *271:A 0
11 *245:A1 *285:D 0
12 *245:A1 *294:A 0
13 *245:A1 *95:77 0
14 *60:14 *242:A 8.00842e-05
15 *60:14 *242:B 1.54008e-05
16 *60:14 *246:B 1.54282e-05
17 *60:14 *95:62 4.79124e-05
18 *287:RESET_B *245:A1 2.21754e-05
19 *35:10 *60:14 0.000130055
*RES
1 *242:Y *60:4 20 
2 *60:4 *60:14 42.4411 
3 *60:14 *246:A 20 
4 *60:4 *245:A1 22.5647 
*END

*D_NET *61 0.00147254
*CONN
*I *245:A2 I *D sg13g2_o21ai_1
*I *243:Y O *D sg13g2_nor2_1
*CAP
1 *245:A2 3.24869e-05
2 *243:Y 0.000444881
3 *61:8 0.000477368
4 *245:A2 *245:B1 1.54282e-05
5 *245:A2 *270:A 0
6 *61:8 *105:8 0
7 *245:A1 *245:A2 0
8 *287:RESET_B *245:A2 0
9 *19:8 *61:8 0.000502376
10 *36:8 *61:8 0
*RES
1 *243:Y *61:8 45.7886 
2 *61:8 *245:A2 40.3193 
*END

*D_NET *62 0.00205948
*CONN
*I *246:B I *D sg13g2_xnor2_1
*I *244:X O *D sg13g2_xor2_1
*CAP
1 *246:B 7.93033e-05
2 *244:X 0.000431358
3 *62:10 0.000510662
4 *246:B *95:62 0
5 *62:10 *285:CLK 0
6 *62:10 *292:A 0
7 *62:10 *86:8 0.000565751
8 *34:10 *62:10 0.000456972
9 *35:10 *246:B 0
10 *60:14 *246:B 1.54282e-05
*RES
1 *244:X *62:10 45.7989 
2 *62:10 *246:B 40.7519 
*END

*D_NET *63 0.000279071
*CONN
*I *306:A I *D sg13g2_dlygate4sd3_1
*I *247:Y O *D sg13g2_nand2_1
*CAP
1 *306:A 0.000131835
2 *247:Y 0.000131835
3 *306:A *118:10 1.54008e-05
*RES
1 *247:Y *306:A 41.3802 
*END

*D_NET *64 0.00160449
*CONN
*I *252:A I *D sg13g2_xnor2_1
*I *251:A1 I *D sg13g2_o21ai_1
*I *248:Y O *D sg13g2_nand2_1
*CAP
1 *252:A 2.70023e-05
2 *251:A1 0
3 *248:Y 0.000102656
4 *64:20 0.000378529
5 *64:10 0.000405531
6 *64:8 0.000102656
7 *252:A *252:B 1.54285e-05
8 *252:A *288:CLK 0
9 *64:8 *283:CLK 0.000182023
10 *64:8 *73:8 0.000181608
11 *64:20 *248:A 0
12 *64:20 *251:A2 0.000209056
13 *64:20 *73:8 0
14 *64:20 *89:10 0
*RES
1 *248:Y *64:8 41.5862 
2 *64:8 *64:10 20 
3 *64:10 *64:20 43.4917 
4 *64:20 *251:A1 20 
5 *64:10 *252:A 20.3193 
*END

*D_NET *65 0.00147613
*CONN
*I *251:A2 I *D sg13g2_o21ai_1
*I *249:Y O *D sg13g2_nor2_1
*CAP
1 *251:A2 0.000336103
2 *249:Y 0.000193425
3 *65:10 0.000529529
4 *251:A2 *249:B 0
5 *251:A2 *251:B1 1.54008e-05
6 *251:A2 *252:B 0
7 *251:A2 *89:10 4.77702e-05
8 *65:10 *252:B 0.000144843
9 *65:10 *288:CLK 0
10 *65:10 *73:8 0
11 *307:A *251:A2 0
12 *64:20 *251:A2 0.000209056
*RES
1 *249:Y *65:10 42.06 
2 *65:10 *251:A2 43.3022 
*END

*D_NET *66 0.00059374
*CONN
*I *252:B I *D sg13g2_xnor2_1
*I *250:X O *D sg13g2_xor2_1
*CAP
1 *252:B 0.000216734
2 *250:X 0.000216734
3 *252:B *249:B 0
4 *252:B *251:B1 0
5 *252:B *288:CLK 0
6 *251:A2 *252:B 0
7 *252:A *252:B 1.54285e-05
8 *65:10 *252:B 0.000144843
*RES
1 *250:X *252:B 42.2454 
*END

*D_NET *67 0.00201377
*CONN
*I *303:A I *D sg13g2_dlygate4sd3_1
*I *253:Y O *D sg13g2_nand2_1
*CAP
1 *303:A 0.00039756
2 *253:Y 6.58014e-05
3 *67:8 0.000463362
4 *303:A *254:B 0.000404266
5 *303:A *114:14 0
6 *303:A *116:10 0
7 *67:8 *127:8 0.000341393
8 *41:10 *67:8 0.000341393
*RES
1 *253:Y *67:8 41.5862 
2 *67:8 *303:A 43.7801 
*END

*D_NET *68 0.00193645
*CONN
*I *258:A I *D sg13g2_xnor2_1
*I *257:A1 I *D sg13g2_o21ai_1
*I *254:Y O *D sg13g2_nand2_1
*CAP
1 *258:A 0.000242103
2 *257:A1 0
3 *254:Y 0.000330005
4 *68:12 0.000242103
5 *68:10 0.000330005
6 *258:A *257:B1 1.53311e-05
7 *258:A *296:A 0
8 *68:10 *254:B 0.000242125
9 *239:A1 *258:A 1.53311e-05
10 *257:A2 *68:10 0
11 *258:B *258:A 1.53311e-05
12 *298:A *258:A 0
13 *40:12 *68:10 0.000504113
*RES
1 *254:Y *68:10 44.1921 
2 *68:10 *68:12 20 
3 *68:12 *257:A1 20 
4 *68:12 *258:A 22.6368 
*END

*D_NET *69 0.00900916
*CONN
*I *292:A I *D sg13g2_buf_8
*I *294:A I *D sg13g2_buf_8
*I *291:A I *D sg13g2_buf_8
*I *293:A I *D sg13g2_buf_8
*I *290:X O *D sg13g2_buf_8
*CAP
1 *292:A 0.00053213
2 *294:A 0.000512678
3 *291:A 0
4 *293:A 0.000856884
5 *290:X 0.00100047
6 *69:49 0.00162415
7 *69:33 0.000647715
8 *69:8 0.00192572
9 *292:A *284:D 0
10 *292:A *285:CLK 0
11 *292:A *71:8 0
12 *292:A *105:8 0
13 *292:A *107:8 0
14 *293:A *232:B 0.000144958
15 *293:A *237:A 0
16 *293:A *254:B 0
17 *293:A *264:A 8.00842e-05
18 *293:A *302:A 1.54285e-05
19 *293:A *312:A 0
20 *293:A *98:62 0
21 *293:A *106:20 0
22 *294:A *285:D 0
23 *294:A *286:CLK 0
24 *69:8 *95:10 0.000341006
25 *69:8 *134:20 0
26 *69:33 *280:D 0.00017597
27 *69:33 *312:A 8.00842e-05
28 *69:33 *79:17 0.000180684
29 *69:33 *111:8 0
30 *69:33 *111:48 0.000208035
31 *69:33 *134:20 0
32 *69:49 *242:A 0
33 *69:49 *98:82 0
34 *69:49 *107:8 0
35 *234:B *293:A 0
36 *239:A1 *69:8 0
37 *240:B *69:33 0
38 *245:A1 *294:A 0
39 *280:RESET_B *69:33 0
40 *284:RESET_B *292:A 0
41 *287:RESET_B *294:A 0.000501482
42 *30:14 *293:A 0
43 *40:12 *293:A 0
44 *47:8 *69:33 0.000181681
45 *56:10 *69:8 0
46 *62:10 *292:A 0
*RES
1 *290:X *69:8 44.7998 
2 *69:8 *293:A 48.3018 
3 *69:8 *69:33 46.5714 
4 *69:33 *291:A 40 
5 *290:X *69:49 45.5414 
6 *69:49 *294:A 45.5105 
7 *69:49 *292:A 45.4899 
*END

*D_NET *70 0.0057178
*CONN
*I *280:CLK I *D sg13g2_dfrbpq_1
*I *281:CLK I *D sg13g2_dfrbpq_1
*I *278:CLK I *D sg13g2_dfrbpq_1
*I *279:CLK I *D sg13g2_dfrbpq_1
*I *291:X O *D sg13g2_buf_8
*CAP
1 *280:CLK 0.000229419
2 *281:CLK 0.000536605
3 *278:CLK 0.000658844
4 *279:CLK 0.000210601
5 *291:X 0
6 *70:36 0.00103831
7 *70:8 0.00121811
8 *70:4 0.000620953
9 *278:CLK *214:B 0
10 *278:CLK *224:B 0
11 *278:CLK *77:8 0
12 *278:CLK *95:38 0
13 *278:CLK *121:21 0
14 *279:CLK *95:38 0
15 *279:CLK *121:21 0
16 *280:CLK *79:17 0
17 *280:CLK *98:98 0.000184493
18 *281:CLK *80:8 0
19 *281:CLK *111:16 0
20 *281:CLK *134:10 0
21 *70:8 *226:B 0
22 *70:8 *122:10 0
23 *70:36 *280:D 0.00017597
24 *70:36 *98:108 0
25 *228:B *70:8 0.000175712
26 *278:RESET_B *278:CLK 0
27 *279:RESET_B *279:CLK 0
28 *42:10 *278:CLK 0
29 *48:10 *278:CLK 0.000288852
30 *48:10 *279:CLK 7.49633e-05
31 *48:16 *279:CLK 0
32 *48:16 *70:8 0.000304968
*RES
1 *291:X *70:4 20 
2 *70:4 *70:8 23.7801 
3 *70:8 *279:CLK 42.6162 
4 *70:8 *278:CLK 47.1276 
5 *70:4 *70:36 22.8325 
6 *70:36 *281:CLK 46.0358 
7 *70:36 *280:CLK 43.0694 
*END

*D_NET *71 0.0057584
*CONN
*I *285:CLK I *D sg13g2_dfrbpq_1
*I *275:CLK I *D sg13g2_dfrbpq_1
*I *284:CLK I *D sg13g2_dfrbpq_1
*I *274:CLK I *D sg13g2_dfrbpq_1
*I *292:X O *D sg13g2_buf_8
*CAP
1 *285:CLK 0.000334024
2 *275:CLK 0.000584188
3 *284:CLK 0.000304176
4 *274:CLK 0.000150947
5 *292:X 0
6 *71:19 0.00112171
7 *71:8 0.000485548
8 *71:4 0.000435277